48

O -0.286681192531122619 3.53467544627376951 0.723446932657147324
H -0.215207537981746466 3.44666278513763036 -0.227014719372055418
H -0.783456532291166852 2.76431574853313045 0.999113955978680135
O 2.73074997732260716 -0.532061726618713537 4.57822039945578219
H 2.46738859140386957 -0.87416637588712709 3.72391531772624695
H 2.23960738544307869 -1.05822619882489288 5.20922117082066816
O 4.9735058249574049 -0.782829334211798233 1.59570125225158743
H 5.27336641681332452 -0.597016017603017479 0.705875974722435018
H 5.36786361987887073 -0.0939268862712847596 2.1306099918915633
O 2.17062707865391458 1.17811536286877172 1.16924799720335115
H 2.62623554436902573 1.8502858186425708 1.67604163081614255
H 2.48940735626403065 1.29505086711322437 0.274297048119808817
O -0.526797571112113117 -1.91712862462638678 2.85234731816476073
H -0.952841088698329064 -2.61221922876847046 2.35078174364429238
H -0.760044287075509084 -2.10037974282711826 3.7624280676716011
O -3.30017709669380821 1.74441055170408954 -0.882432207803271362
H -2.94160848041247114 2.01173528933088441 -1.72871709034270449
H -3.82315505612268769 0.966967026655963457 -1.07815543862008001
O -5.4116511944008403 2.44920465523742958 1.61958247006292777
H -6.01972559515627204 2.71839189057142283 0.931094450294897014
H -5.82623034584814015 2.7383567343100732 2.43244607510409017
O 4.61421734861779864 -4.19068172427297103 1.21445840546015504
H 5.36612710108344082 -3.98626332462896693 0.658511667232606568
H 4.82556107384261246 -5.04046018819848474 1.6010363795158602
O 5.13299942768767714 -2.83106801891245308 4.24032638548107599
H 6.07163929977320471 -2.87272669940261194 4.05742805028688913
H 4.98769531266400978 -3.50520745194116623 4.90414466937665772
O -2.74153440529708003 3.47505117724988866 3.54450124411763978
H -3.09812764625912163 3.2061998769192126 4.39113715603446408
H -2.16325472712940625 4.20962154662647325 3.750002880370225
O 1.96266717597927931 -2.57125726774899954 -0.0171574117595265467
H 2.48863833468474249 -2.07209823506069402 -0.641998696348659026
H 2.04319044423449903 -2.0873899892625305 0.804803916695867261
O -3.41533845600801111 -0.129129856419338523 2.35249784632502834
H -2.73571992955078702 0.499475356980392249 2.1091745077772841
H -3.52164180909068314 -0.0141130419990615208 3.29679790500720449
O -3.34433334525998038 4.8744936611719405 0.562356349629138497
H -3.88617068023588397 5.49689022139400851 1.04739948114415937
H -3.53604144801326381 5.05560465053743613 -0.357795143108398439
O 2.05959450552523338 -4.13442423316172736 3.37919932414540547
H 1.75777319003210053 -4.31868974531518202 4.26868352602626544
H 1.609926753198619 -4.78046067394246865 2.83452710189461676
O -0.575332051908636455 -0.270242151510830697 -0.250173396141424309
H -1.13017851274671477 -1.01071058745785081 -0.495293561557087925
H -0.239249510299535006 0.0635092079612744609 -1.08197300696462517
O -0.0770979059931290317 1.31148273592908016 3.86557184903217399
H -0.498715100116716714 1.04404517094385185 4.68224075301933151
H 0.448184751844178608 2.07487171233644219 4.10546250820662717
